data_test
_audit_creation_method            'gchemol'
_symmetry_space_group_name_H-M    'P1'
_symmetry_Int_Tables_number       1
_symmetry_cell_setting            triclinic

loop_
_symmetry_equiv_pos_as_xyz
 x,y,z
_cell_length_a        12.2075
_cell_length_b        12.4592
_cell_length_c        25.0353
_cell_angle_alpha     90.0000
_cell_angle_beta      90.0000
_cell_angle_gamma     90.0000

loop_
_atom_site_type_symbol
_atom_site_label
_atom_site_fract_x
_atom_site_fract_y
_atom_site_fract_z
Ni  Ni1        0.00461     0.19934     0.02873
Ni  Ni2        0.17128     0.19934     0.14366
Ni  Ni3        0.33795     0.19934     0.08620
Ni  Ni4        0.00461     0.19934     0.20113
Ni  Ni5        0.33795     0.09934     0.00000
Ni  Ni6        0.00461     0.09934     0.11493
Ni  Ni7        0.17128     0.09934     0.05747
Ni  Ni8        0.33795     0.09934     0.17240
Ni  Ni9        0.50461     0.19934     0.02873
Ni  Ni10       0.67128     0.19934     0.14366
Ni  Ni11       0.83795     0.19934     0.08620
Ni  Ni12       0.50461     0.19934     0.20113
Ni  Ni13       0.83795     0.09934     0.00000
Ni  Ni14       0.50461     0.09934     0.11493
Ni  Ni15       0.67128     0.09934     0.05747
Ni  Ni16       0.83795     0.09934     0.17240
Ni  Ni17       0.00461     0.39934     0.02873
Ni  Ni18       0.17128     0.39934     0.14366
Ni  Ni19       0.33795     0.39934     0.08620
Ni  Ni20       0.00461     0.39934     0.20113
Ni  Ni21       0.33795     0.29934     0.00000
Ni  Ni22       0.00461     0.29934     0.11493
Ni  Ni23       0.17128     0.29934     0.05747
Ni  Ni24       0.33795     0.29934     0.17240
Ni  Ni25       0.50461     0.39934     0.02873
Ni  Ni26       0.67128     0.39934     0.14366
Ni  Ni27       0.83795     0.39934     0.08620
Ni  Ni28       0.50461     0.39934     0.20113
Ni  Ni29       0.83795     0.29934     0.00000
Ni  Ni30       0.50461     0.29934     0.11493
Ni  Ni31       0.67128     0.29934     0.05747
Ni  Ni32       0.83795     0.29934     0.17240
Ni  Ni33       0.00461     0.59934     0.02873
Ni  Ni34       0.17128     0.59934     0.14366
Ni  Ni35       0.33795     0.59934     0.08620
Ni  Ni36       0.00461     0.59934     0.20113
Ni  Ni37       0.33795     0.49934     0.00000
Ni  Ni38       0.00461     0.49934     0.11493
Ni  Ni39       0.17128     0.49934     0.05747
Ni  Ni40       0.33795     0.49934     0.17240
Ni  Ni41       0.50461     0.59934     0.02873
Ni  Ni42       0.67128     0.59934     0.14366
Ni  Ni43       0.83795     0.59934     0.08620
Ni  Ni44       0.50461     0.59934     0.20113
Ni  Ni45       0.83795     0.49934     0.00000
Ni  Ni46       0.50461     0.49934     0.11493
Ni  Ni47       0.67128     0.49934     0.05747
Ni  Ni48       0.83795     0.49934     0.17240
Ni  Ni49       0.00461     0.79934     0.02873
Ni  Ni50       0.17128     0.79934     0.14366
Ni  Ni51       0.33795     0.79934     0.08620
Ni  Ni52       0.00461     0.79934     0.20113
Ni  Ni53       0.33795     0.69934     0.00000
Ni  Ni54       0.00461     0.69934     0.11493
Ni  Ni55       0.17128     0.69934     0.05747
Ni  Ni56       0.33795     0.69934     0.17240
Ni  Ni57       0.50461     0.79934     0.02873
Ni  Ni58       0.67128     0.79934     0.14366
Ni  Ni59       0.83795     0.79934     0.08620
Ni  Ni60       0.50461     0.79934     0.20113
Ni  Ni61       0.83795     0.69934     0.00000
Ni  Ni62       0.50461     0.69934     0.11493
Ni  Ni63       0.67128     0.69934     0.05747
Ni  Ni64       0.83795     0.69934     0.17240
Ni  Ni65       0.00461     0.99934     0.02873
Ni  Ni66       0.17128     0.99934     0.14366
Ni  Ni67       0.33795     0.99934     0.08620
Ni  Ni68       0.00461     0.99934     0.20113
Ni  Ni69       0.33795     0.89934     0.00000
Ni  Ni70       0.00461     0.89934     0.11493
Ni  Ni71       0.17128     0.89934     0.05747
Ni  Ni72       0.33795     0.89934     0.17240
Ni  Ni73       0.50461     0.99934     0.02873
Ni  Ni74       0.67128     0.99934     0.14366
Ni  Ni75       0.83795     0.99934     0.08620
Ni  Ni76       0.50461     0.99934     0.20113
Ni  Ni77       0.83795     0.89934     0.00000
Ni  Ni78       0.50461     0.89934     0.11493
Ni  Ni79       0.67128     0.89934     0.05747
Ni  Ni80       0.83795     0.89934     0.17240
